INIT MASTER(S)
NASTRAN SYSTEM(442)=-1,SYSTEM(319)=1
ID Boeing,FEMAP
SOL SESTATIC
CEND
  TITLE = Simcenter Nastran Static Analysis Set
  ECHO = NONE
  DISPLACEMENT(PLOT) = ALL
  SPCFORCE(PLOT) = ALL
  OLOAD(PLOT) = ALL
  FORCE(PLOT,CORNER) = ALL
  STRESS(PLOT,CORNER) = ALL
  SPC = 1
  LOAD = 1
BEGIN BULK
$ ***************************************************************************
$   Written by : Femap
$   Version    : 2023.1.0
$   Translator : Simcenter Nastran
$   From Model : C:\Users\trbrooks\Documents\Boeing_777.modfem
$   Date       : Mon Oct 16 12:17:26 2023
$   Output To  : C:\Users\trbrooks\Documents\
$ ***************************************************************************
$
PARAM,PRGPST,NO
PARAM,POST,-1
PARAM,OGEOM,NO
PARAM,AUTOSPC,YES
PARAM,K6ROT,100.
PARAM,GRDPNT,0
CORD2C         1       0      0.      0.      0.      0.      0.      1.+FEMAPC1
+FEMAPC1      1.      0.      1.        
CORD2S         2       0      0.      0.      0.      0.      0.      1.+FEMAPC2
+FEMAPC2      1.      0.      1.        
$ Femap Load Set 1 : Untitled
GRAV           1       0      1.      0.      0.   -9.81
$ Femap Constraint Set 1 : Clamp
SPC1           1  123456    1254
SPC1           1  123456    1255
SPC1           1  123456    1256
SPC1           1  123456    1257
SPC1           1  123456    1258
SPC1           1  123456    1259
SPC1           1  123456    1260
SPC1           1  123456    1261
SPC1           1  123456    1262
SPC1           1  123456    1263
SPC1           1  123456    1264
SPC1           1  123456    1265
SPC1           1  123456    1266
SPC1           1  123456    1267
SPC1           1  123456    1268
SPC1           1  123456    1269
SPC1           1  123456    1270
SPC1           1  123456    1271
SPC1           1  123456    1272
SPC1           1  123456    1273
$ ... 36 like lines cut
$ Femap Property 1 : UPPER_SKIN:000
PSHELL         1       1      .1       1               1              0.
$ Femap Property 2 : UPPER_SKIN:001
PSHELL         2       1      .1       1               1              0.
$ Femap Property 3 : UPPER_SKIN:002
PSHELL         3       1      .1       1               1              0.
$ Femap Property 4 : UPPER_SKIN:003
PSHELL         4       1      .1       1               1              0.
$ Femap Property 5 : UPPER_SKIN:004
PSHELL         5       1      .1       1               1              0.
$ Femap Property 6 : UPPER_SKIN:005
PSHELL         6       1      .1       1               1              0.
$ Femap Property 7 : UPPER_SKIN:006
PSHELL         7       1      .1       1               1              0.
$ Femap Property 8 : UPPER_SKIN:007
PSHELL         8       1      .1       1               1              0.
$ Femap Property 9 : UPPER_SKIN:008
PSHELL         9       1      .1       1               1              0.
$ Femap Property 10 : UPPER_SKIN:009
PSHELL        10       1      .1       1               1              0.
$ Femap Property 11 : UPPER_SKIN:010
PSHELL        11       1      .1       1               1              0.
$ Femap Property 12 : UPPER_SKIN:011
PSHELL        12       1      .1       1               1              0.
$ Femap Property 13 : UPPER_SKIN:012
PSHELL        13       1      .1       1               1              0.
$ Femap Property 14 : UPPER_SKIN:013
PSHELL        14       1      .1       1               1              0.
$ Femap Property 15 : UPPER_SKIN:014
PSHELL        15       1      .1       1               1              0.
$ Femap Property 16 : UPPER_SKIN:015
PSHELL        16       1      .1       1               1              0.
$ Femap Property 17 : UPPER_SKIN:016
PSHELL        17       1      .1       1               1              0.
$ Femap Property 18 : UPPER_SKIN:017
PSHELL        18       1      .1       1               1              0.
$ Femap Property 19 : UPPER_SKIN:018
PSHELL        19       1      .1       1               1              0.
$ Femap Property 20 : UPPER_SKIN:019
PSHELL        20       1      .1       1               1              0.
$ Femap Property 21 : UPPER_SKIN:020
PSHELL        21       1      .1       1               1              0.
$ Femap Property 22 : UPPER_SKIN:021
PSHELL        22       1      .1       1               1              0.
$ Femap Property 23 : UPPER_SKIN:022
PSHELL        23       1      .1       1               1              0.
$ Femap Property 24 : LOWER_SKIN:000
PSHELL        24       1      .1       1               1              0.
$ Femap Property 25 : LOWER_SKIN:001
PSHELL        25       1      .1       1               1              0.
$ Femap Property 26 : LOWER_SKIN:002
PSHELL        26       1      .1       1               1              0.
$ Femap Property 27 : LOWER_SKIN:003
PSHELL        27       1      .1       1               1              0.
$ Femap Property 28 : LOWER_SKIN:004
PSHELL        28       1      .1       1               1              0.
$ Femap Property 29 : LOWER_SKIN:005
PSHELL        29       1      .1       1               1              0.
$ Femap Property 30 : LOWER_SKIN:006
PSHELL        30       1      .1       1               1              0.
$ Femap Property 31 : LOWER_SKIN:007
PSHELL        31       1      .1       1               1              0.
$ Femap Property 32 : LOWER_SKIN:008
PSHELL        32       1      .1       1               1              0.
$ Femap Property 33 : LOWER_SKIN:009
PSHELL        33       1      .1       1               1              0.
$ Femap Property 34 : LOWER_SKIN:010
PSHELL        34       1      .1       1               1              0.
$ Femap Property 35 : LOWER_SKIN:011
PSHELL        35       1      .1       1               1              0.
$ Femap Property 36 : LOWER_SKIN:012
PSHELL        36       1      .1       1               1              0.
$ Femap Property 37 : LOWER_SKIN:013
PSHELL        37       1      .1       1               1              0.
$ Femap Property 38 : LOWER_SKIN:014
PSHELL        38       1      .1       1               1              0.
$ Femap Property 39 : LOWER_SKIN:015
PSHELL        39       1      .1       1               1              0.
$ Femap Property 40 : LOWER_SKIN:016
PSHELL        40       1      .1       1               1              0.
$ Femap Property 41 : LOWER_SKIN:017
PSHELL        41       1      .1       1               1              0.
$ Femap Property 42 : LOWER_SKIN:018
PSHELL        42       1      .1       1               1              0.
$ Femap Property 43 : LOWER_SKIN:019
PSHELL        43       1      .1       1               1              0.
$ Femap Property 44 : LOWER_SKIN:020
PSHELL        44       1      .1       1               1              0.
$ Femap Property 45 : LOWER_SKIN:021
PSHELL        45       1      .1       1               1              0.
$ Femap Property 46 : LOWER_SKIN:022
PSHELL        46       1      .1       1               1              0.
$ Femap Property 47 : TE_SPAR:000
PSHELL        47       1      .1       1               1              0.
$ Femap Property 48 : TE_SPAR:001
PSHELL        48       1      .1       1               1              0.
$ Femap Property 49 : TE_SPAR:002
PSHELL        49       1      .1       1               1              0.
$ Femap Property 50 : TE_SPAR:003
PSHELL        50       1      .1       1               1              0.
$ Femap Property 51 : TE_SPAR:004
PSHELL        51       1      .1       1               1              0.
$ Femap Property 52 : TE_SPAR:005
PSHELL        52       1      .1       1               1              0.
$ Femap Property 53 : TE_SPAR:006
PSHELL        53       1      .1       1               1              0.
$ Femap Property 54 : TE_SPAR:007
PSHELL        54       1      .1       1               1              0.
$ Femap Property 55 : TE_SPAR:008
PSHELL        55       1      .1       1               1              0.
$ Femap Property 56 : TE_SPAR:009
PSHELL        56       1      .1       1               1              0.
$ Femap Property 57 : TE_SPAR:010
PSHELL        57       1      .1       1               1              0.
$ Femap Property 58 : TE_SPAR:011
PSHELL        58       1      .1       1               1              0.
$ Femap Property 59 : TE_SPAR:012
PSHELL        59       1      .1       1               1              0.
$ Femap Property 60 : TE_SPAR:013
PSHELL        60       1      .1       1               1              0.
$ Femap Property 61 : TE_SPAR:014
PSHELL        61       1      .1       1               1              0.
$ Femap Property 62 : TE_SPAR:015
PSHELL        62       1      .1       1               1              0.
$ Femap Property 63 : TE_SPAR:016
PSHELL        63       1      .1       1               1              0.
$ Femap Property 64 : TE_SPAR:017
PSHELL        64       1      .1       1               1              0.
$ Femap Property 65 : TE_SPAR:018
PSHELL        65       1      .1       1               1              0.
$ Femap Property 66 : TE_SPAR:019
PSHELL        66       1      .1       1               1              0.
$ Femap Property 67 : TE_SPAR:020
PSHELL        67       1      .1       1               1              0.
$ Femap Property 68 : TE_SPAR:021
PSHELL        68       1      .1       1               1              0.
$ Femap Property 69 : TE_SPAR:022
PSHELL        69       1      .1       1               1              0.
$ Femap Property 70 : LE_SPAR:000
PSHELL        70       1      .1       1               1              0.
$ Femap Property 71 : LE_SPAR:001
PSHELL        71       1      .1       1               1              0.
$ Femap Property 72 : LE_SPAR:002
PSHELL        72       1      .1       1               1              0.
$ Femap Property 73 : LE_SPAR:003
PSHELL        73       1      .1       1               1              0.
$ Femap Property 74 : LE_SPAR:004
PSHELL        74       1      .1       1               1              0.
$ Femap Property 75 : LE_SPAR:005
PSHELL        75       1      .1       1               1              0.
$ Femap Property 76 : LE_SPAR:006
PSHELL        76       1      .1       1               1              0.
$ Femap Property 77 : LE_SPAR:007
PSHELL        77       1      .1       1               1              0.
$ Femap Property 78 : LE_SPAR:008
PSHELL        78       1      .1       1               1              0.
$ Femap Property 79 : LE_SPAR:009
PSHELL        79       1      .1       1               1              0.
$ Femap Property 80 : LE_SPAR:010
PSHELL        80       1      .1       1               1              0.
$ Femap Property 81 : LE_SPAR:011
PSHELL        81       1      .1       1               1              0.
$ Femap Property 82 : LE_SPAR:012
PSHELL        82       1      .1       1               1              0.
$ Femap Property 83 : LE_SPAR:013
PSHELL        83       1      .1       1               1              0.
$ Femap Property 84 : LE_SPAR:014
PSHELL        84       1      .1       1               1              0.
$ Femap Property 85 : LE_SPAR:015
PSHELL        85       1      .1       1               1              0.
$ Femap Property 86 : LE_SPAR:016
PSHELL        86       1      .1       1               1              0.
$ Femap Property 87 : LE_SPAR:017
PSHELL        87       1      .1       1               1              0.
$ Femap Property 88 : LE_SPAR:018
PSHELL        88       1      .1       1               1              0.
$ Femap Property 89 : LE_SPAR:019
PSHELL        89       1      .1       1               1              0.
$ Femap Property 90 : LE_SPAR:020
PSHELL        90       1      .1       1               1              0.
$ Femap Property 91 : LE_SPAR:021
PSHELL        91       1      .1       1               1              0.
$ Femap Property 92 : LE_SPAR:022
PSHELL        92       1      .1       1               1              0.
$ Femap Property 93 : RIB:000
PSHELL        93       1      .1       1               1              0.
$ Femap Property 94 : RIB:001
PSHELL        94       1      .1       1               1              0.
$ Femap Property 95 : RIB:002
PSHELL        95       1      .1       1               1              0.
$ Femap Property 96 : RIB:003
PSHELL        96       1      .1       1               1              0.
$ Femap Property 97 : RIB:004
PSHELL        97       1      .1       1               1              0.
$ Femap Property 98 : RIB:005
PSHELL        98       1      .1       1               1              0.
$ Femap Property 99 : RIB:006
PSHELL        99       1      .1       1               1              0.
$ Femap Property 100 : RIB:007
PSHELL       100       1      .1       1               1              0.
$ Femap Property 101 : RIB:008
PSHELL       101       1      .1       1               1              0.
$ Femap Property 102 : RIB:009
PSHELL       102       1      .1       1               1              0.
$ Femap Property 103 : RIB:010
PSHELL       103       1      .1       1               1              0.
$ Femap Property 104 : RIB:011
PSHELL       104       1      .1       1               1              0.
$ Femap Property 105 : RIB:012
PSHELL       105       1      .1       1               1              0.
$ Femap Property 106 : RIB:013
PSHELL       106       1      .1       1               1              0.
$ Femap Property 107 : RIB:014
PSHELL       107       1      .1       1               1              0.
$ Femap Property 108 : RIB:015
PSHELL       108       1      .1       1               1              0.
$ Femap Property 109 : RIB:016
PSHELL       109       1      .1       1               1              0.
$ Femap Property 110 : RIB:017
PSHELL       110       1      .1       1               1              0.
$ Femap Property 111 : RIB:018
PSHELL       111       1      .1       1               1              0.
$ Femap Property 112 : RIB:019
$ ... 9 like lines cut
$ Femap Material 1 : Aluminum
MAT1           1   7.+10              .3   2700.      0.      0.        +       
+          2.7+8                
GRID           1       049.2197734.183442.092513       0
GRID           2       049.10079 33.91252.065101       0
GRID           3       048.9818333.641632.036893       0
GRID           4       048.8628933.370812.008227       0
GRID           5       048.74395    33.11.979306       0
GRID           6       048.40203    33.12.012243       0
GRID           7       048.05949    33.12.037098       0
GRID           8       048.23568 33.37082.057876       0
GRID           9       048.4118933.641622.078155       0
GRID          10       048.5881233.912492.097561       0
GRID          11       048.7644134.183442.115378       0
GRID          12       048.6108333.463052.044234       0
GRID          13       048.7653633.74136 2.06887       0
GRID          14       048.8773733.945952.086686       0
GRID          15       048.6121732.799931.946984       0
GRID          16       0 48.4804 32.49991.914259       0
GRID          17       048.3486632.199921.880968       0
GRID          18       048.2169431.899991.847155       0
GRID          19       048.08519    31.61.813942       0
GRID          20       047.75194    31.6 1.85388       0
$ ... 4421 like lines cut
CQUAD4         1      23       9      10      13      12                
CQUAD4         2      23       3       4      12      13                
CQUAD4         3      23       3      13      14       2                
CQUAD4         4      23      14      11       1       2                
CQUAD4         5      23      10      11      14      13                
CQUAD4         6      23       9      12       6       8                
CTRIA3         7      23       6       7       8                        
CQUAD4         8      23       4       5       6      12                
CQUAD4         9      22      22      23      35      21                
CQUAD4        10      22      34      35      23      24                
CQUAD4        11      22      32      34      24      25                
CQUAD4        12      22      20      34      32      33                
CQUAD4        13      22      20      21      35      34                
CQUAD4        14      22      19      20      33      18                
CQUAD4        15      22      18      33      31      17                
CQUAD4        16      22      30      31      33      32                
CQUAD4        17      22      26      30      32      25                
CQUAD4        18      22      17      31      29      16                
CQUAD4        19      22      28      29      31      30                
CQUAD4        20      22      27      28      30      26                
CQUAD4        21      22      28      37      36      29                
CQUAD4        22      22       7       6      36      37                
CQUAD4        23      22       7      37      28      27                
CQUAD4        24      22      29      36      15      16                
CQUAD4        25      22       5      15      36       6                
CQUAD4        26      20      63      65      66      62                
CQUAD4        27      20      66      60      61      62                
$ ... 1429 like lines cut
CTRIA3      1457      62    1629    1628    1604                        
CTRIA3      1458      62     152    1617    1630                        
CQUAD4      1459      62    1618    1627    1628    1617                
CQUAD4      1460      62    1619    1626    1627    1618                
CQUAD4      1461      62     201    1621    1624    1620                
CTRIA3      1462      62    1624    1625    1620                        
CTRIA3      1463      62    1622    1623    1624                        
CQUAD4      1464      62    1626    1619    1620    1625                
CTRIA3      1465      62    1629    1604    1603                        
CTRIA3      1466      62     152    1630    1602                        
CTRIA3      1467      62    1622    1624    1621                        
CQUAD4      1468      61    1623    1622    1638    1637                
CQUAD4      1469      61    1622    1621    1639    1638                
CQUAD4      1470      61    1621     201     202    1639                
CQUAD4      1471      61    1637    1638    1640    1636                
CQUAD4      1472      61    1638    1639    1641    1640                
CQUAD4      1473      61    1639     202     203    1641                
CQUAD4      1474      61    1636    1640    1642    1635                
CQUAD4      1475      61    1640    1641    1643    1642                
CQUAD4      1476      61    1641     203     204    1643                
CQUAD4      1477      61    1635    1642    1644    1634                
CQUAD4      1478      61    1642    1643    1645    1644                
CQUAD4      1479      61    1643     204     205    1645                
CQUAD4      1480      61    1634    1644    1632    1633                
CQUAD4      1481      61    1644    1645    1631    1632                
CQUAD4      1482      61    1645     205     206    1631                
CQUAD4      1483      60    1633    1632    1653    1652                
CQUAD4      1484      60    1632    1631    1654    1653                
CQUAD4      1485      60    1631     206     256    1654                
CQUAD4      1486      60    1652    1653    1655    1651                
CQUAD4      1487      60    1653    1654    1656    1655                
$ ... 156 like lines cut
CTRIA3      1644      50    1802    1803    1804                        
CQUAD4      1645      50    1805    1809    1808    1804                
CQUAD4      1646      50    1806    1810    1809    1805                
CQUAD4      1647      50    1787    1786    1811    1807                
CQUAD4      1648      50    1810    1806    1807    1811                
CQUAD4      1649      49    1803    1802    1820    1819                
CQUAD4      1650      49    1802    1801    1821    1820                
CQUAD4      1651      49    1801    1800    1822    1821                
CQUAD4      1652      49    1800    1008    1365    1822                
CQUAD4      1653      49    1819    1820    1823    1818                
CQUAD4      1654      49    1820    1821    1824    1823                
CQUAD4      1655      49    1821    1822    1825    1824                
CQUAD4      1656      49    1822    1365    1366    1825                
CQUAD4      1657      49    1818    1823    1826    1817                
CQUAD4      1658      49    1823    1824    1827    1826                
CQUAD4      1659      49    1824    1825    1828    1827                
CQUAD4      1660      49    1825    1366    1367    1828                
CQUAD4      1661      49    1817    1826    1829    1816                
CQUAD4      1662      49    1826    1827    1830    1829                
CQUAD4      1663      49    1827    1828    1831    1830                
CQUAD4      1664      49    1828    1367    1368    1831                
$ ... 263 like lines cut
CTRIA3      1928      78    2097    2098    2099                        
CQUAD4      1929      78    2095     601    2096    2103                
CQUAD4      1930      77    2098    2097    2118    2117                
CQUAD4      1931      77    2097    2096    2119    2118                
CQUAD4      1932      77    2096     601     644    2119                
CQUAD4      1933      77    2117    2118    2120    2116                
CQUAD4      1934      77    2118    2119    2121    2120                
CQUAD4      1935      77    2119     644     643    2121                
CQUAD4      1936      77    2116    2120    2122    2115                
CQUAD4      1937      77    2120    2121    2123    2122                
CQUAD4      1938      77    2121     643     642    2123                
CQUAD4      1939      77    2115    2122    2124    2114                
CQUAD4      1940      77    2122    2123    2125    2124                
CQUAD4      1941      77    2123     642     641    2125                
CQUAD4      1942      77    2114    2124    2126    2113                
CQUAD4      1943      77    2124    2125    2127    2126                
CQUAD4      1944      77    2125     641     640    2127                
CQUAD4      1945      77    2113    2126    2111    2112                
CQUAD4      1946      77    2126    2127    2110    2111                
CQUAD4      1947      77    2127     640     639    2110                
CQUAD4      1948      76    2112    2111    2136    2135                
$ ... 30 like lines cut
CTRIA3      1979      75    2148    2149    2150                        
CQUAD4      1980      75    2151    2156    2155    2150                
CQUAD4      1981      75    2152    2157    2156    2151                
CQUAD4      1982      75    2158    2153    2154    2159                
CQUAD4      1983      75    2130    2129    2159    2154                
CQUAD4      1984      75    2157    2152    2153    2158                
CQUAD4      1985      74    2149    2148    2174    2173                
CQUAD4      1986      74    2148    2147    2175    2174                
CQUAD4      1987      74    2147    2146    2176    2175                
CQUAD4      1988      74    2146     824     929    2176                
CQUAD4      1989      74    2173    2174    2177    2172                
CQUAD4      1990      74    2174    2175    2178    2177                
CQUAD4      1991      74    2175    2176    2179    2178                
CQUAD4      1992      74    2176     929     928    2179                
CQUAD4      1993      74    2172    2177    2180    2171                
CQUAD4      1994      74    2177    2178    2181    2180                
CQUAD4      1995      74    2178    2179    2182    2181                
CQUAD4      1996      74    2179     928     927    2182                
CQUAD4      1997      74    2171    2180    2183    2170                
CQUAD4      1998      74    2180    2181    2184    2183                
CQUAD4      1999      74    2181    2182    2185    2184                
$ ... 72 like lines cut
CTRIA3      2072      71    2240    2241    2242                        
CQUAD4      2073      71    2251    2239    2240    2252                
CQUAD4      2074      71    2250    2238    2239    2251                
CQUAD4      2075      71    2249    2237    2238    2250                
CQUAD4      2076      71    2248    1141    1140    2249                
CQUAD4      2077      71    1139    2237    2249    1140                
CQUAD4      2078      71    2247    1142    1141    2248                
CQUAD4      2079      71    2246    1143    1142    2247                
CQUAD4      2080      71    2213    1144    1143    2246                
CQUAD4      2081      70    1280    1279    2286    2285                
CQUAD4      2082      70    2283    2284    2285    2286                
CQUAD4      2083      70    2282    2283    2286    2281                
CQUAD4      2084      70    1279    1278    2281    2286                
CQUAD4      2085      70    1139    1280    2285    2237                
CQUAD4      2086      70    2284    2238    2237    2285                
CQUAD4      2087      70    2239    2238    2284    2280                
CQUAD4      2088      70    2283    2279    2280    2284                
CQUAD4      2089      70    2282    2278    2279    2283                
CQUAD4      2090      70    1278    1277    2275    2281                
CQUAD4      2091      70    2276    2282    2281    2275                
CQUAD4      2092      70    2277    2278    2282    2276                
$ ... 9 like lines cut
CTRIA3      2102      70    2265    2266    2267                        
CQUAD4      2103      70    2268    2272    2271    2267                
CQUAD4      2104      70    2269    2273    2272    2268                
CQUAD4      2105      70    2273    2269    2270    2274                
CQUAD4      2106      70    2241    2240    2274    2270                
CQUAD4      2107      94    2306    2307    2355    2354                
CQUAD4      2108      94    1457    2355    2307    1458                
CQUAD4      2109      94    2354    2355    2352    2353                
CQUAD4      2110      94    2355    1457    1456    2352                
CQUAD4      2111      94    2306    2354    2351    2305                
CQUAD4      2112      94    2351    2354    2353    2350                
CQUAD4      2113      94    1455    2357    2352    1456                
CQUAD4      2114      94    2357    2356    2353    2352                
CQUAD4      2115      94    1117    1118    2357    1455                
CQUAD4      2116      94    2356    2357    1118    1119                
CQUAD4      2117      94    2356    2349    2350    2353                
CQUAD4      2118      94    1120    2349    2356    1119                
CQUAD4      2119      94    2347    2348    2359    2360                
CQUAD4      2120      94    2346    2347    2360    2361                
CQUAD4      2121      94    2358    2345    2346    2361                
CQUAD4      2122      94    2359    2351    2350    2360                
CTRIA3      2123      94    2350    2361    2360                        
CQUAD4      2124      94    2349    2358    2361    2350                
CQUAD4      2125      94    2303    2304    2359    2348                
CQUAD4      2126      94    2351    2359    2304    2305                
CQUAD4      2127      94    1120    1121    2358    2349                
CQUAD4      2128      94    2345    2358    1121    1122                
CQUAD4      2129      94    2303    2348    2344    2302                
CQUAD4      2130      94    2344    2348    2347    2343                
CQUAD4      2131      94    2342    2343    2347    2346                
CQUAD4      2132      94    1123    2341    2345    1122                
CQUAD4      2133      94    2346    2345    2341    2342                
CQUAD4      2134      94    2302    2344    2340    2301                
CQUAD4      2135      94    2340    2344    2343    2339                
CQUAD4      2136      94    2342    2338    2339    2343                
CQUAD4      2137      94    1124    2337    2341    1123                
CQUAD4      2138      94    2342    2341    2337    2338                
CQUAD4      2139      94    2301    2340    2336    2300                
CQUAD4      2140      94    2336    2340    2339    2335                
CQUAD4      2141      94    2338    2334    2335    2339                
CQUAD4      2142      94    1125    2333    2337    1124                
CQUAD4      2143      94    2338    2337    2333    2334                
$ ... 249 like lines cut
CTRIA3      2393      97    2607    2606    2604                        
CQUAD4      2394      97    2571    2572    2604    2606                
CQUAD4      2395      97     906     907    2608    2605                
CQUAD4      2396      97    2605    2604    2610    2609                
CQUAD4      2397      97    1786    1785    2609    2610                
CQUAD4      2398      97    2604    2572    2573    2610                
CQUAD4      2399      97    1787    1786    2610    2573                
CQUAD4      2400      97    1785     904     905    2609                
CQUAD4      2401      97     906    2605    2609     905                
CQUAD4      2402      97     908     909    2598    2601                
CQUAD4      2403      97    2599    2602    2601    2598                
CQUAD4      2404      97    2569    2570    2603    2600                
CQUAD4      2405      97    2602    2599    2600    2603                
CQUAD4      2406      97     909     910    2595    2598                
CQUAD4      2407      97    2596    2599    2598    2595                
CQUAD4      2408      97    2568    2569    2600    2597                
CQUAD4      2409      97    2599    2596    2597    2600                
CQUAD4      2410      97     910     911    2592    2595                
CQUAD4      2411      97    2593    2596    2595    2592                
CQUAD4      2412      97    2567    2568    2597    2594                
CQUAD4      2413      97    2596    2593    2594    2597                
$ ... 57 like lines cut
CTRIA3      2471      98    2668    2667    2656                        
CQUAD4      2472      98    2641    2642    2656    2667                
CQUAD4      2473      98     810     811    2669    2657                
CQUAD4      2474      98     812     813    2661    2664                
CQUAD4      2475      98    2662    2665    2664    2661                
CQUAD4      2476      98    2639    2640    2666    2663                
CQUAD4      2477      98    2665    2662    2663    2666                
CQUAD4      2478      98     813     814    2658    2661                
CQUAD4      2479      98    2659    2662    2661    2658                
CQUAD4      2480      98    2638    2639    2663    2660                
CQUAD4      2481      98    2662    2659    2660    2663                
CQUAD4      2482      98     814     815    2653    2658                
CQUAD4      2483      98    2654    2659    2658    2653                
CQUAD4      2484      98    2637    2638    2660    2655                
CQUAD4      2485      98    2659    2654    2655    2660                
CQUAD4      2486      98    2672    2673    2677    2676                
CQUAD4      2487      98    2645    2646    2676    2677                
CQUAD4      2488      98    2644    2645    2677    2675                
CQUAD4      2489      98    2673    2674    2675    2677                
CQUAD4      2490      98    1770    2672    2676    1771                
CQUAD4      2491      98    2646    1772    1771    2676                
$ ... 1862 like lines cut
CTRIA3      4354      46    1835    1834    3152                        
CQUAD4      4355      46    1510    1511    4133    3152                
CQUAD4      4356      93    1254    1255    4136    1479                
CQUAD4      4357      93    1255    1256    4137    4136                
CQUAD4      4358      93    1256    1257    4138    4137                
CQUAD4      4359      93    1257    1258    4139    4138                
CQUAD4      4360      93    1258    1259    4140    4139                
CQUAD4      4361      93    1259    1260    4141    4140                
CQUAD4      4362      93    1260    1261    4142    4141                
CQUAD4      4363      93    1261    1262    4143    4142                
CQUAD4      4364      93    1262    1263    4144    4143                
CQUAD4      4365      93    1263    1264    4145    4144                
CQUAD4      4366      93    1264    1265    4146    4145                
CQUAD4      4367      93    1265    1266    4147    4146                
CQUAD4      4368      93    1266    1267    4148    4147                
CQUAD4      4369      93    1267    1268    4149    4148                
CQUAD4      4370      93    1268    1269    4150    4149                
CQUAD4      4371      93    1269    1270    4151    4150                
CQUAD4      4372      93    1270    1271    4152    4151                
CQUAD4      4373      93    1271    1272    4153    4152                
CQUAD4      4374      93    1272    1273    4154    4153                
$ ... 327 like lines cut
CTRIA3      4702      32    4395    4345    4344                        
CQUAD4      4703      32    2101    2100    4396    4398                
CQUAD4      4704      32    4344    4343    4399    4398                
CQUAD4      4705      32    4399    2102    2101    4398                
CQUAD4      4706      32    4342    2102    4399    4343                
CQUAD4      4707      32    2840    2075    2102    4342                
CQUAD4      4708      39    1604    3077    4423    1628                
CQUAD4      4709      39    4423    4421    1627    1628                
CQUAD4      4710      39    3076    4421    4423    3077                
CQUAD4      4711      39    4422    1626    1627    4421                
CQUAD4      4712      39    4420    1625    1626    4422                
CQUAD4      4713      39    4418    4420    4422    4417                
CQUAD4      4714      39    4421    4416    4417    4422                
CQUAD4      4715      39    3076    3075    4416    4421                
CQUAD4      4716      39    1624    1625    4420    4419                
CTRIA3      4717      39    4420    4418    4419                        
CQUAD4      4718      39    3054    1623    1624    4419                
CQUAD4      4719      39    3053    3054    4419    4415                
CQUAD4      4720      39    4418    4414    4415    4419                
CQUAD4      4721      39    4417    4413    4414    4418                
CQUAD4      4722      39    4416    4412    4413    4417                
CQUAD4      4723      39    3075    3074    4412    4416                
CQUAD4      4724      39    3052    3053    4415    4411                
CQUAD4      4725      39    4414    4410    4411    4415                
CQUAD4      4726      39    4413    4409    4410    4414                
CQUAD4      4727      39    4412    4408    4409    4413                
CQUAD4      4728      39    3074    3073    4408    4412                
CQUAD4      4729      39    3051    3052    4411    4407                
CQUAD4      4730      39    4410    4406    4407    4411                
CQUAD4      4731      39    4409    4405    4406    4410                
CQUAD4      4732      39    4408    4404    4405    4409                
CQUAD4      4733      39    3073    3072    4404    4408                
CQUAD4      4734      39    3050    3051    4407    4403                
CQUAD4      4735      39    4406    4402    4403    4407                
CQUAD4      4736      39    4405    4401    4402    4406                
CQUAD4      4737      39    4404    4400    4401    4405                
$ ... 34 like lines cut
ENDDATA 01667459
